
---------- Begin Simulation Statistics ----------
final_tick                                   30479314                       # Number of ticks from beginning of simulation (restored from checkpoints and never reset)
host_inst_rate                                  23717                       # Simulator instruction rate (inst/s)
host_mem_usage                                 716568                       # Number of bytes of host memory used
host_op_rate                                    27015                       # Simulator op (including micro ops) rate (op/s)
host_seconds                                     0.36                       # Real time elapsed on the host
host_tick_rate                               84559867                       # Simulator tick rate (ticks/s)
sim_freq                                 1000000000000                       # Frequency of simulated ticks
sim_insts                                        8546                       # Number of instructions simulated
sim_ops                                          9737                       # Number of ops (including micro ops) simulated
sim_seconds                                  0.000030                       # Number of seconds simulated
sim_ticks                                    30479314                       # Number of ticks simulated
system.cpu.branchPred.BTBCorrect                    0                       # Number of correct BTB predictions (this stat may not work properly.
system.cpu.branchPred.BTBHitPct             24.310777                       # BTB Hit Percentage
system.cpu.branchPred.BTBHits                     582                       # Number of BTB hits
system.cpu.branchPred.BTBLookups                 2394                       # Number of BTB lookups
system.cpu.branchPred.RASInCorrect                  7                       # Number of incorrect RAS predictions.
system.cpu.branchPred.condIncorrect               549                       # Number of conditional branches incorrect
system.cpu.branchPred.condPredicted              1884                       # Number of conditional branches predicted
system.cpu.branchPred.indirectHits                 15                       # Number of indirect target hits.
system.cpu.branchPred.indirectLookups             150                       # Number of indirect predictor lookups.
system.cpu.branchPred.indirectMisses              135                       # Number of indirect misses.
system.cpu.branchPred.lookups                    2916                       # Number of BP lookups
system.cpu.branchPred.usedRAS                     259                       # Number of times the RAS was used to get a target.
system.cpu.branchPredindirectMispredicted           65                       # Number of mispredicted indirect branches.
system.cpu.committedInsts                        8546                       # Number of instructions committed
system.cpu.committedOps                          9737                       # Number of ops (including micro ops) committed
system.cpu.cpi                              11.394571                       # CPI: cycles per instruction
system.cpu.discardedOps                          1809                       # Number of ops (including micro ops) which were discarded before commit
system.cpu.dtb.accesses                             0                       # DTB accesses
system.cpu.dtb.align_faults                         0                       # Number of TLB faults due to alignment restrictions
system.cpu.dtb.domain_faults                        0                       # Number of TLB faults due to domain restrictions
system.cpu.dtb.flush_entries                        0                       # Number of entries that have been flushed from TLB
system.cpu.dtb.flush_tlb                            0                       # Number of times complete TLB was flushed
system.cpu.dtb.flush_tlb_asid                       0                       # Number of times TLB was flushed by ASID
system.cpu.dtb.flush_tlb_mva                        0                       # Number of times TLB was flushed by MVA
system.cpu.dtb.flush_tlb_mva_asid                   0                       # Number of times TLB was flushed by MVA & ASID
system.cpu.dtb.hits                                 0                       # DTB hits
system.cpu.dtb.inst_accesses                        0                       # ITB inst accesses
system.cpu.dtb.inst_hits                            0                       # ITB inst hits
system.cpu.dtb.inst_misses                          0                       # ITB inst misses
system.cpu.dtb.misses                               0                       # DTB misses
system.cpu.dtb.perms_faults                         0                       # Number of TLB faults due to permissions restrictions
system.cpu.dtb.prefetch_faults                      0                       # Number of TLB faults due to prefetch
system.cpu.dtb.read_accesses                        0                       # DTB read accesses
system.cpu.dtb.read_hits                            0                       # DTB read hits
system.cpu.dtb.read_misses                          0                       # DTB read misses
system.cpu.dtb.stage2_mmu.stage2_tlb.accesses            0                       # DTB accesses
system.cpu.dtb.stage2_mmu.stage2_tlb.align_faults            0                       # Number of TLB faults due to alignment restrictions
system.cpu.dtb.stage2_mmu.stage2_tlb.domain_faults            0                       # Number of TLB faults due to domain restrictions
system.cpu.dtb.stage2_mmu.stage2_tlb.flush_entries            0                       # Number of entries that have been flushed from TLB
system.cpu.dtb.stage2_mmu.stage2_tlb.flush_tlb            0                       # Number of times complete TLB was flushed
system.cpu.dtb.stage2_mmu.stage2_tlb.flush_tlb_asid            0                       # Number of times TLB was flushed by ASID
system.cpu.dtb.stage2_mmu.stage2_tlb.flush_tlb_mva            0                       # Number of times TLB was flushed by MVA
system.cpu.dtb.stage2_mmu.stage2_tlb.flush_tlb_mva_asid            0                       # Number of times TLB was flushed by MVA & ASID
system.cpu.dtb.stage2_mmu.stage2_tlb.hits            0                       # DTB hits
system.cpu.dtb.stage2_mmu.stage2_tlb.inst_accesses            0                       # ITB inst accesses
system.cpu.dtb.stage2_mmu.stage2_tlb.inst_hits            0                       # ITB inst hits
system.cpu.dtb.stage2_mmu.stage2_tlb.inst_misses            0                       # ITB inst misses
system.cpu.dtb.stage2_mmu.stage2_tlb.misses            0                       # DTB misses
system.cpu.dtb.stage2_mmu.stage2_tlb.perms_faults            0                       # Number of TLB faults due to permissions restrictions
system.cpu.dtb.stage2_mmu.stage2_tlb.prefetch_faults            0                       # Number of TLB faults due to prefetch
system.cpu.dtb.stage2_mmu.stage2_tlb.read_accesses            0                       # DTB read accesses
system.cpu.dtb.stage2_mmu.stage2_tlb.read_hits            0                       # DTB read hits
system.cpu.dtb.stage2_mmu.stage2_tlb.read_misses            0                       # DTB read misses
system.cpu.dtb.stage2_mmu.stage2_tlb.walker.walkRequestOrigin_Requested::Data            0                       # Table walker requests started/completed, data/inst
system.cpu.dtb.stage2_mmu.stage2_tlb.walker.walkRequestOrigin_Requested::Inst            0                       # Table walker requests started/completed, data/inst
system.cpu.dtb.stage2_mmu.stage2_tlb.walker.walkRequestOrigin_Requested::total            0                       # Table walker requests started/completed, data/inst
system.cpu.dtb.stage2_mmu.stage2_tlb.walker.walkRequestOrigin_Completed::Data            0                       # Table walker requests started/completed, data/inst
system.cpu.dtb.stage2_mmu.stage2_tlb.walker.walkRequestOrigin_Completed::Inst            0                       # Table walker requests started/completed, data/inst
system.cpu.dtb.stage2_mmu.stage2_tlb.walker.walkRequestOrigin_Completed::total            0                       # Table walker requests started/completed, data/inst
system.cpu.dtb.stage2_mmu.stage2_tlb.walker.walkRequestOrigin::total            0                       # Table walker requests started/completed, data/inst
system.cpu.dtb.stage2_mmu.stage2_tlb.walker.walks            0                       # Table walker walks requested
system.cpu.dtb.stage2_mmu.stage2_tlb.write_accesses            0                       # DTB write accesses
system.cpu.dtb.stage2_mmu.stage2_tlb.write_hits            0                       # DTB write hits
system.cpu.dtb.stage2_mmu.stage2_tlb.write_misses            0                       # DTB write misses
system.cpu.dtb.walker.walkRequestOrigin_Requested::Data            0                       # Table walker requests started/completed, data/inst
system.cpu.dtb.walker.walkRequestOrigin_Requested::Inst            0                       # Table walker requests started/completed, data/inst
system.cpu.dtb.walker.walkRequestOrigin_Requested::total            0                       # Table walker requests started/completed, data/inst
system.cpu.dtb.walker.walkRequestOrigin_Completed::Data            0                       # Table walker requests started/completed, data/inst
system.cpu.dtb.walker.walkRequestOrigin_Completed::Inst            0                       # Table walker requests started/completed, data/inst
system.cpu.dtb.walker.walkRequestOrigin_Completed::total            0                       # Table walker requests started/completed, data/inst
system.cpu.dtb.walker.walkRequestOrigin::total            0                       # Table walker requests started/completed, data/inst
system.cpu.dtb.walker.walks                         0                       # Table walker walks requested
system.cpu.dtb.write_accesses                       0                       # DTB write accesses
system.cpu.dtb.write_hits                           0                       # DTB write hits
system.cpu.dtb.write_misses                         0                       # DTB write misses
system.cpu.fetch2.amo_instructions                  0                       # Number of memory atomic instructions successfully decoded
system.cpu.fetch2.fp_instructions                   0                       # Number of floating point instructions successfully decoded
system.cpu.fetch2.int_instructions               9016                       # Number of integer instructions successfully decoded
system.cpu.fetch2.load_instructions              2080                       # Number of memory load instructions successfully decoded
system.cpu.fetch2.store_instructions             1283                       # Number of memory store instructions successfully decoded
system.cpu.fetch2.vec_instructions                  0                       # Number of SIMD instructions successfully decoded
system.cpu.idleCycles                           80392                       # Total number of cycles that the object has spent stopped
system.cpu.ipc                               0.087761                       # IPC: instructions per cycle
system.cpu.itb.accesses                             0                       # DTB accesses
system.cpu.itb.align_faults                         0                       # Number of TLB faults due to alignment restrictions
system.cpu.itb.domain_faults                        0                       # Number of TLB faults due to domain restrictions
system.cpu.itb.flush_entries                        0                       # Number of entries that have been flushed from TLB
system.cpu.itb.flush_tlb                            0                       # Number of times complete TLB was flushed
system.cpu.itb.flush_tlb_asid                       0                       # Number of times TLB was flushed by ASID
system.cpu.itb.flush_tlb_mva                        0                       # Number of times TLB was flushed by MVA
system.cpu.itb.flush_tlb_mva_asid                   0                       # Number of times TLB was flushed by MVA & ASID
system.cpu.itb.hits                                 0                       # DTB hits
system.cpu.itb.inst_accesses                        0                       # ITB inst accesses
system.cpu.itb.inst_hits                            0                       # ITB inst hits
system.cpu.itb.inst_misses                          0                       # ITB inst misses
system.cpu.itb.misses                               0                       # DTB misses
system.cpu.itb.perms_faults                         0                       # Number of TLB faults due to permissions restrictions
system.cpu.itb.prefetch_faults                      0                       # Number of TLB faults due to prefetch
system.cpu.itb.read_accesses                        0                       # DTB read accesses
system.cpu.itb.read_hits                            0                       # DTB read hits
system.cpu.itb.read_misses                          0                       # DTB read misses
system.cpu.itb.stage2_mmu.stage2_tlb.accesses            0                       # DTB accesses
system.cpu.itb.stage2_mmu.stage2_tlb.align_faults            0                       # Number of TLB faults due to alignment restrictions
system.cpu.itb.stage2_mmu.stage2_tlb.domain_faults            0                       # Number of TLB faults due to domain restrictions
system.cpu.itb.stage2_mmu.stage2_tlb.flush_entries            0                       # Number of entries that have been flushed from TLB
system.cpu.itb.stage2_mmu.stage2_tlb.flush_tlb            0                       # Number of times complete TLB was flushed
system.cpu.itb.stage2_mmu.stage2_tlb.flush_tlb_asid            0                       # Number of times TLB was flushed by ASID
system.cpu.itb.stage2_mmu.stage2_tlb.flush_tlb_mva            0                       # Number of times TLB was flushed by MVA
system.cpu.itb.stage2_mmu.stage2_tlb.flush_tlb_mva_asid            0                       # Number of times TLB was flushed by MVA & ASID
system.cpu.itb.stage2_mmu.stage2_tlb.hits            0                       # DTB hits
system.cpu.itb.stage2_mmu.stage2_tlb.inst_accesses            0                       # ITB inst accesses
system.cpu.itb.stage2_mmu.stage2_tlb.inst_hits            0                       # ITB inst hits
system.cpu.itb.stage2_mmu.stage2_tlb.inst_misses            0                       # ITB inst misses
system.cpu.itb.stage2_mmu.stage2_tlb.misses            0                       # DTB misses
system.cpu.itb.stage2_mmu.stage2_tlb.perms_faults            0                       # Number of TLB faults due to permissions restrictions
system.cpu.itb.stage2_mmu.stage2_tlb.prefetch_faults            0                       # Number of TLB faults due to prefetch
system.cpu.itb.stage2_mmu.stage2_tlb.read_accesses            0                       # DTB read accesses
system.cpu.itb.stage2_mmu.stage2_tlb.read_hits            0                       # DTB read hits
system.cpu.itb.stage2_mmu.stage2_tlb.read_misses            0                       # DTB read misses
system.cpu.itb.stage2_mmu.stage2_tlb.walker.walkRequestOrigin_Requested::Data            0                       # Table walker requests started/completed, data/inst
system.cpu.itb.stage2_mmu.stage2_tlb.walker.walkRequestOrigin_Requested::Inst            0                       # Table walker requests started/completed, data/inst
system.cpu.itb.stage2_mmu.stage2_tlb.walker.walkRequestOrigin_Requested::total            0                       # Table walker requests started/completed, data/inst
system.cpu.itb.stage2_mmu.stage2_tlb.walker.walkRequestOrigin_Completed::Data            0                       # Table walker requests started/completed, data/inst
system.cpu.itb.stage2_mmu.stage2_tlb.walker.walkRequestOrigin_Completed::Inst            0                       # Table walker requests started/completed, data/inst
system.cpu.itb.stage2_mmu.stage2_tlb.walker.walkRequestOrigin_Completed::total            0                       # Table walker requests started/completed, data/inst
system.cpu.itb.stage2_mmu.stage2_tlb.walker.walkRequestOrigin::total            0                       # Table walker requests started/completed, data/inst
system.cpu.itb.stage2_mmu.stage2_tlb.walker.walks            0                       # Table walker walks requested
system.cpu.itb.stage2_mmu.stage2_tlb.write_accesses            0                       # DTB write accesses
system.cpu.itb.stage2_mmu.stage2_tlb.write_hits            0                       # DTB write hits
system.cpu.itb.stage2_mmu.stage2_tlb.write_misses            0                       # DTB write misses
system.cpu.itb.walker.walkRequestOrigin_Requested::Data            0                       # Table walker requests started/completed, data/inst
system.cpu.itb.walker.walkRequestOrigin_Requested::Inst            0                       # Table walker requests started/completed, data/inst
system.cpu.itb.walker.walkRequestOrigin_Requested::total            0                       # Table walker requests started/completed, data/inst
system.cpu.itb.walker.walkRequestOrigin_Completed::Data            0                       # Table walker requests started/completed, data/inst
system.cpu.itb.walker.walkRequestOrigin_Completed::Inst            0                       # Table walker requests started/completed, data/inst
system.cpu.itb.walker.walkRequestOrigin_Completed::total            0                       # Table walker requests started/completed, data/inst
system.cpu.itb.walker.walkRequestOrigin::total            0                       # Table walker requests started/completed, data/inst
system.cpu.itb.walker.walks                         0                       # Table walker walks requested
system.cpu.itb.write_accesses                       0                       # DTB write accesses
system.cpu.itb.write_hits                           0                       # DTB write hits
system.cpu.itb.write_misses                         0                       # DTB write misses
system.cpu.numCycles                            97378                       # number of cpu cycles simulated
system.cpu.numFetchSuspends                         0                       # Number of times Execute suspended instruction fetching
system.cpu.numWorkItemsCompleted                    0                       # number of work items this cpu completed
system.cpu.numWorkItemsStarted                      0                       # number of work items this cpu started
system.cpu.op_class_0::No_OpClass                   0      0.00%      0.00% # Class of committed instruction
system.cpu.op_class_0::IntAlu                    6742     69.24%     69.24% # Class of committed instruction
system.cpu.op_class_0::IntMult                     50      0.51%     69.75% # Class of committed instruction
system.cpu.op_class_0::IntDiv                       0      0.00%     69.75% # Class of committed instruction
system.cpu.op_class_0::FloatAdd                     0      0.00%     69.75% # Class of committed instruction
system.cpu.op_class_0::FloatCmp                     0      0.00%     69.75% # Class of committed instruction
system.cpu.op_class_0::FloatCvt                     0      0.00%     69.75% # Class of committed instruction
system.cpu.op_class_0::FloatMult                    0      0.00%     69.75% # Class of committed instruction
system.cpu.op_class_0::FloatMultAcc                 0      0.00%     69.75% # Class of committed instruction
system.cpu.op_class_0::FloatDiv                     0      0.00%     69.75% # Class of committed instruction
system.cpu.op_class_0::FloatMisc                    0      0.00%     69.75% # Class of committed instruction
system.cpu.op_class_0::FloatSqrt                    0      0.00%     69.75% # Class of committed instruction
system.cpu.op_class_0::SimdAdd                      0      0.00%     69.75% # Class of committed instruction
system.cpu.op_class_0::SimdAddAcc                   0      0.00%     69.75% # Class of committed instruction
system.cpu.op_class_0::SimdAlu                      0      0.00%     69.75% # Class of committed instruction
system.cpu.op_class_0::SimdCmp                      0      0.00%     69.75% # Class of committed instruction
system.cpu.op_class_0::SimdCvt                      0      0.00%     69.75% # Class of committed instruction
system.cpu.op_class_0::SimdMisc                     0      0.00%     69.75% # Class of committed instruction
system.cpu.op_class_0::SimdMult                     0      0.00%     69.75% # Class of committed instruction
system.cpu.op_class_0::SimdMultAcc                  0      0.00%     69.75% # Class of committed instruction
system.cpu.op_class_0::SimdShift                    0      0.00%     69.75% # Class of committed instruction
system.cpu.op_class_0::SimdShiftAcc                 0      0.00%     69.75% # Class of committed instruction
system.cpu.op_class_0::SimdDiv                      0      0.00%     69.75% # Class of committed instruction
system.cpu.op_class_0::SimdSqrt                     0      0.00%     69.75% # Class of committed instruction
system.cpu.op_class_0::SimdFloatAdd                 0      0.00%     69.75% # Class of committed instruction
system.cpu.op_class_0::SimdFloatAlu                 0      0.00%     69.75% # Class of committed instruction
system.cpu.op_class_0::SimdFloatCmp                 0      0.00%     69.75% # Class of committed instruction
system.cpu.op_class_0::SimdFloatCvt                 0      0.00%     69.75% # Class of committed instruction
system.cpu.op_class_0::SimdFloatDiv                 0      0.00%     69.75% # Class of committed instruction
system.cpu.op_class_0::SimdFloatMisc                0      0.00%     69.75% # Class of committed instruction
system.cpu.op_class_0::SimdFloatMult                0      0.00%     69.75% # Class of committed instruction
system.cpu.op_class_0::SimdFloatMultAcc             0      0.00%     69.75% # Class of committed instruction
system.cpu.op_class_0::SimdFloatSqrt                0      0.00%     69.75% # Class of committed instruction
system.cpu.op_class_0::SimdReduceAdd                0      0.00%     69.75% # Class of committed instruction
system.cpu.op_class_0::SimdReduceAlu                0      0.00%     69.75% # Class of committed instruction
system.cpu.op_class_0::SimdReduceCmp                0      0.00%     69.75% # Class of committed instruction
system.cpu.op_class_0::SimdFloatReduceAdd            0      0.00%     69.75% # Class of committed instruction
system.cpu.op_class_0::SimdFloatReduceCmp            0      0.00%     69.75% # Class of committed instruction
system.cpu.op_class_0::SimdAes                      0      0.00%     69.75% # Class of committed instruction
system.cpu.op_class_0::SimdAesMix                   0      0.00%     69.75% # Class of committed instruction
system.cpu.op_class_0::SimdSha1Hash                 0      0.00%     69.75% # Class of committed instruction
system.cpu.op_class_0::SimdSha1Hash2                0      0.00%     69.75% # Class of committed instruction
system.cpu.op_class_0::SimdSha256Hash               0      0.00%     69.75% # Class of committed instruction
system.cpu.op_class_0::SimdSha256Hash2              0      0.00%     69.75% # Class of committed instruction
system.cpu.op_class_0::SimdShaSigma2                0      0.00%     69.75% # Class of committed instruction
system.cpu.op_class_0::SimdShaSigma3                0      0.00%     69.75% # Class of committed instruction
system.cpu.op_class_0::SimdPredAlu                  0      0.00%     69.75% # Class of committed instruction
system.cpu.op_class_0::MemRead                   1414     14.52%     84.28% # Class of committed instruction
system.cpu.op_class_0::MemWrite                  1531     15.72%    100.00% # Class of committed instruction
system.cpu.op_class_0::FloatMemRead                 0      0.00%    100.00% # Class of committed instruction
system.cpu.op_class_0::FloatMemWrite                0      0.00%    100.00% # Class of committed instruction
system.cpu.op_class_0::IprAccess                    0      0.00%    100.00% # Class of committed instruction
system.cpu.op_class_0::InstPrefetch                 0      0.00%    100.00% # Class of committed instruction
system.cpu.op_class_0::total                     9737                       # Class of committed instruction
system.cpu.tickCycles                           16986                       # Number of cycles that the object actually ticked
system.cpu.workload.numSyscalls                    11                       # Number of system calls
system.membus.snoop_filter.hit_multi_requests            2                       # Number of requests hitting in the snoop filter with multiple (>1) holders of the requested data.
system.membus.snoop_filter.hit_multi_snoops            0                       # Number of snoops hitting in the snoop filter with multiple (>1) holders of the requested data.
system.membus.snoop_filter.hit_single_requests           84                       # Number of requests hitting in the snoop filter with a single holder of the requested data.
system.membus.snoop_filter.hit_single_snoops            0                       # Number of snoops hitting in the snoop filter with a single holder of the requested data.
system.membus.snoop_filter.tot_requests           624                       # Total number of requests made to the snoop filter.
system.membus.snoop_filter.tot_snoops               0                       # Total number of snoops made to the snoop filter.
system.membus.pwrStateResidencyTicks::UNDEFINED     30479314                       # Cumulative time (in ticks) in various power states
system.membus.trans_dist::ReadResp                490                       # Transaction distribution
system.membus.trans_dist::WritebackClean           66                       # Transaction distribution
system.membus.trans_dist::ReadExReq                68                       # Transaction distribution
system.membus.trans_dist::ReadExResp               68                       # Transaction distribution
system.membus.trans_dist::ReadCleanReq            398                       # Transaction distribution
system.membus.trans_dist::ReadSharedReq            92                       # Transaction distribution
system.membus.pkt_count_system.cpu.icache.mem_side::system.mem_ctrls.port          862                       # Packet count per connected master and slave (bytes)
system.membus.pkt_count_system.cpu.dcache.mem_side::system.mem_ctrls.port          320                       # Packet count per connected master and slave (bytes)
system.membus.pkt_count::total                   1182                       # Packet count per connected master and slave (bytes)
system.membus.pkt_size_system.cpu.icache.mem_side::system.mem_ctrls.port        29696                       # Cumulative packet size per connected master and slave (bytes)
system.membus.pkt_size_system.cpu.dcache.mem_side::system.mem_ctrls.port        10240                       # Cumulative packet size per connected master and slave (bytes)
system.membus.pkt_size::total                   39936                       # Cumulative packet size per connected master and slave (bytes)
system.membus.snoops                                0                       # Total snoops (count)
system.membus.snoopTraffic                          0                       # Total snoop traffic (bytes)
system.membus.snoop_fanout::samples               558                       # Request fanout histogram
system.membus.snoop_fanout::mean             0.035842                       # Request fanout histogram
system.membus.snoop_fanout::stdev            0.186064                       # Request fanout histogram
system.membus.snoop_fanout::underflows              0      0.00%      0.00% # Request fanout histogram
system.membus.snoop_fanout::0                     538     96.42%     96.42% # Request fanout histogram
system.membus.snoop_fanout::1                      20      3.58%    100.00% # Request fanout histogram
system.membus.snoop_fanout::2                       0      0.00%    100.00% # Request fanout histogram
system.membus.snoop_fanout::overflows               0      0.00%    100.00% # Request fanout histogram
system.membus.snoop_fanout::min_value               0                       # Request fanout histogram
system.membus.snoop_fanout::max_value               1                       # Request fanout histogram
system.membus.snoop_fanout::total                 558                       # Request fanout histogram
system.membus.reqLayer0.occupancy             1146771                       # Layer occupancy (ticks)
system.membus.reqLayer0.utilization               3.8                       # Layer utilization (%)
system.membus.respLayer1.occupancy            2117925                       # Layer occupancy (ticks)
system.membus.respLayer1.utilization              6.9                       # Layer utilization (%)
system.membus.respLayer2.occupancy             862024                       # Layer occupancy (ticks)
system.membus.respLayer2.utilization              2.8                       # Layer utilization (%)
system.voltage_domain.voltage                       1                       # Voltage in Volts
system.clk_domain.clock                          1000                       # Clock period in ticks
system.cpu_voltage_domain.voltage                   1                       # Voltage in Volts
system.mem_ctrls.pwrStateResidencyTicks::UNDEFINED     30479314                       # Cumulative time (in ticks) in various power states
system.mem_ctrls.bytes_read::.cpu.inst          25472                       # Number of bytes read from this memory
system.mem_ctrls.bytes_read::.cpu.data          10240                       # Number of bytes read from this memory
system.mem_ctrls.bytes_read::total              35712                       # Number of bytes read from this memory
system.mem_ctrls.bytes_inst_read::.cpu.inst        25472                       # Number of instructions bytes read from this memory
system.mem_ctrls.bytes_inst_read::total         25472                       # Number of instructions bytes read from this memory
system.mem_ctrls.num_reads::.cpu.inst             398                       # Number of read requests responded to by this memory
system.mem_ctrls.num_reads::.cpu.data             160                       # Number of read requests responded to by this memory
system.mem_ctrls.num_reads::total                 558                       # Number of read requests responded to by this memory
system.mem_ctrls.bw_read::.cpu.inst         835714347                       # Total read bandwidth from this memory (bytes/s)
system.mem_ctrls.bw_read::.cpu.data         335965567                       # Total read bandwidth from this memory (bytes/s)
system.mem_ctrls.bw_read::total            1171679914                       # Total read bandwidth from this memory (bytes/s)
system.mem_ctrls.bw_inst_read::.cpu.inst    835714347                       # Instruction read bandwidth from this memory (bytes/s)
system.mem_ctrls.bw_inst_read::total        835714347                       # Instruction read bandwidth from this memory (bytes/s)
system.mem_ctrls.bw_total::.cpu.inst        835714347                       # Total bandwidth to/from this memory (bytes/s)
system.mem_ctrls.bw_total::.cpu.data        335965567                       # Total bandwidth to/from this memory (bytes/s)
system.mem_ctrls.bw_total::total           1171679914                       # Total bandwidth to/from this memory (bytes/s)
system.mem_ctrls.avgPriority_.writebacks::samples        64.00                       # Average QoS priority value for accepted requests
system.mem_ctrls.avgPriority_.cpu.inst::samples       390.00                       # Average QoS priority value for accepted requests
system.mem_ctrls.avgPriority_.cpu.data::samples       159.00                       # Average QoS priority value for accepted requests
system.mem_ctrls.priorityMinLatency      0.000000018750                       # per QoS priority minimum request to response latency (s)
system.mem_ctrls.priorityMaxLatency      0.000020246002                       # per QoS priority maximum request to response latency (s)
system.mem_ctrls.numReadWriteTurnArounds            2                       # Number of turnarounds from READ to WRITE
system.mem_ctrls.numWriteReadTurnArounds            2                       # Number of turnarounds from WRITE to READ
system.mem_ctrls.numStayReadState                1161                       # Number of times bus staying in READ state
system.mem_ctrls.numStayWriteState                 30                       # Number of times bus staying in WRITE state
system.mem_ctrls.readReqs                         558                       # Number of read requests accepted
system.mem_ctrls.writeReqs                         64                       # Number of write requests accepted
system.mem_ctrls.readBursts                       558                       # Number of DRAM read bursts, including those serviced by the write queue
system.mem_ctrls.writeBursts                       64                       # Number of DRAM write bursts, including those merged in the write queue
system.mem_ctrls.servicedByWrQ                      9                       # Number of DRAM read bursts serviced by the write queue
system.mem_ctrls.mergedWrBursts                     0                       # Number of DRAM write bursts merged with an existing one
system.mem_ctrls.neitherReadNorWriteReqs            0                       # Number of requests that are neither read nor write
system.mem_ctrls.perBankRdBursts::0                38                       # Per bank write bursts
system.mem_ctrls.perBankRdBursts::1                 4                       # Per bank write bursts
system.mem_ctrls.perBankRdBursts::2                19                       # Per bank write bursts
system.mem_ctrls.perBankRdBursts::3                40                       # Per bank write bursts
system.mem_ctrls.perBankRdBursts::4                40                       # Per bank write bursts
system.mem_ctrls.perBankRdBursts::5                58                       # Per bank write bursts
system.mem_ctrls.perBankRdBursts::6                34                       # Per bank write bursts
system.mem_ctrls.perBankRdBursts::7               108                       # Per bank write bursts
system.mem_ctrls.perBankRdBursts::8                57                       # Per bank write bursts
system.mem_ctrls.perBankRdBursts::9                74                       # Per bank write bursts
system.mem_ctrls.perBankRdBursts::10                4                       # Per bank write bursts
system.mem_ctrls.perBankRdBursts::11                9                       # Per bank write bursts
system.mem_ctrls.perBankRdBursts::12                3                       # Per bank write bursts
system.mem_ctrls.perBankRdBursts::13               16                       # Per bank write bursts
system.mem_ctrls.perBankRdBursts::14               12                       # Per bank write bursts
system.mem_ctrls.perBankRdBursts::15               33                       # Per bank write bursts
system.mem_ctrls.perBankWrBursts::0                 4                       # Per bank write bursts
system.mem_ctrls.perBankWrBursts::1                 0                       # Per bank write bursts
system.mem_ctrls.perBankWrBursts::2                 0                       # Per bank write bursts
system.mem_ctrls.perBankWrBursts::3                 0                       # Per bank write bursts
system.mem_ctrls.perBankWrBursts::4                 0                       # Per bank write bursts
system.mem_ctrls.perBankWrBursts::5                10                       # Per bank write bursts
system.mem_ctrls.perBankWrBursts::6                 2                       # Per bank write bursts
system.mem_ctrls.perBankWrBursts::7                 6                       # Per bank write bursts
system.mem_ctrls.perBankWrBursts::8                 3                       # Per bank write bursts
system.mem_ctrls.perBankWrBursts::9                 6                       # Per bank write bursts
system.mem_ctrls.perBankWrBursts::10                0                       # Per bank write bursts
system.mem_ctrls.perBankWrBursts::11                1                       # Per bank write bursts
system.mem_ctrls.perBankWrBursts::12                0                       # Per bank write bursts
system.mem_ctrls.perBankWrBursts::13                0                       # Per bank write bursts
system.mem_ctrls.perBankWrBursts::14                0                       # Per bank write bursts
system.mem_ctrls.perBankWrBursts::15                0                       # Per bank write bursts
system.mem_ctrls.avgRdQLen                       1.19                       # Average read queue length when enqueuing
system.mem_ctrls.avgWrQLen                      10.29                       # Average write queue length when enqueuing
system.mem_ctrls.totQLat                      3410818                       # Total ticks spent queuing
system.mem_ctrls.totBusLat                    2745000                       # Total ticks spent in databus transfers
system.mem_ctrls.totMemAccLat                13704568                       # Total ticks spent from burst creation until serviced by the DRAM
system.mem_ctrls.avgQLat                      6212.78                       # Average queueing delay per DRAM burst
system.mem_ctrls.avgBusLat                    5000.00                       # Average bus latency per DRAM burst
system.mem_ctrls.avgMemAccLat                24962.78                       # Average memory access latency per DRAM burst
system.mem_ctrls.numRdRetry                         0                       # Number of times read queue was full causing retry
system.mem_ctrls.numWrRetry                         0                       # Number of times write queue was full causing retry
system.mem_ctrls.readRowHits                      446                       # Number of row buffer hits during reads
system.mem_ctrls.writeRowHits                      25                       # Number of row buffer hits during writes
system.mem_ctrls.readRowHitRate                 81.24                       # Row buffer hit rate for reads
system.mem_ctrls.writeRowHitRate                39.06                       # Row buffer hit rate for writes
system.mem_ctrls.readPktSize::0                     0                       # Read request sizes (log2)
system.mem_ctrls.readPktSize::1                     0                       # Read request sizes (log2)
system.mem_ctrls.readPktSize::2                     0                       # Read request sizes (log2)
system.mem_ctrls.readPktSize::3                     0                       # Read request sizes (log2)
system.mem_ctrls.readPktSize::4                     0                       # Read request sizes (log2)
system.mem_ctrls.readPktSize::5                     0                       # Read request sizes (log2)
system.mem_ctrls.readPktSize::6                   558                       # Read request sizes (log2)
system.mem_ctrls.writePktSize::0                    0                       # Write request sizes (log2)
system.mem_ctrls.writePktSize::1                    0                       # Write request sizes (log2)
system.mem_ctrls.writePktSize::2                    0                       # Write request sizes (log2)
system.mem_ctrls.writePktSize::3                    0                       # Write request sizes (log2)
system.mem_ctrls.writePktSize::4                    0                       # Write request sizes (log2)
system.mem_ctrls.writePktSize::5                    0                       # Write request sizes (log2)
system.mem_ctrls.writePktSize::6                   64                       # Write request sizes (log2)
system.mem_ctrls.rdQLenPdf::0                     460                       # What read queue length does an incoming req see
system.mem_ctrls.rdQLenPdf::1                      82                       # What read queue length does an incoming req see
system.mem_ctrls.rdQLenPdf::2                       7                       # What read queue length does an incoming req see
system.mem_ctrls.rdQLenPdf::3                       0                       # What read queue length does an incoming req see
system.mem_ctrls.rdQLenPdf::4                       0                       # What read queue length does an incoming req see
system.mem_ctrls.rdQLenPdf::5                       0                       # What read queue length does an incoming req see
system.mem_ctrls.rdQLenPdf::6                       0                       # What read queue length does an incoming req see
system.mem_ctrls.rdQLenPdf::7                       0                       # What read queue length does an incoming req see
system.mem_ctrls.rdQLenPdf::8                       0                       # What read queue length does an incoming req see
system.mem_ctrls.rdQLenPdf::9                       0                       # What read queue length does an incoming req see
system.mem_ctrls.rdQLenPdf::10                      0                       # What read queue length does an incoming req see
system.mem_ctrls.rdQLenPdf::11                      0                       # What read queue length does an incoming req see
system.mem_ctrls.rdQLenPdf::12                      0                       # What read queue length does an incoming req see
system.mem_ctrls.rdQLenPdf::13                      0                       # What read queue length does an incoming req see
system.mem_ctrls.rdQLenPdf::14                      0                       # What read queue length does an incoming req see
system.mem_ctrls.rdQLenPdf::15                      0                       # What read queue length does an incoming req see
system.mem_ctrls.rdQLenPdf::16                      0                       # What read queue length does an incoming req see
system.mem_ctrls.rdQLenPdf::17                      0                       # What read queue length does an incoming req see
system.mem_ctrls.rdQLenPdf::18                      0                       # What read queue length does an incoming req see
system.mem_ctrls.rdQLenPdf::19                      0                       # What read queue length does an incoming req see
system.mem_ctrls.rdQLenPdf::20                      0                       # What read queue length does an incoming req see
system.mem_ctrls.rdQLenPdf::21                      0                       # What read queue length does an incoming req see
system.mem_ctrls.rdQLenPdf::22                      0                       # What read queue length does an incoming req see
system.mem_ctrls.rdQLenPdf::23                      0                       # What read queue length does an incoming req see
system.mem_ctrls.rdQLenPdf::24                      0                       # What read queue length does an incoming req see
system.mem_ctrls.rdQLenPdf::25                      0                       # What read queue length does an incoming req see
system.mem_ctrls.rdQLenPdf::26                      0                       # What read queue length does an incoming req see
system.mem_ctrls.rdQLenPdf::27                      0                       # What read queue length does an incoming req see
system.mem_ctrls.rdQLenPdf::28                      0                       # What read queue length does an incoming req see
system.mem_ctrls.rdQLenPdf::29                      0                       # What read queue length does an incoming req see
system.mem_ctrls.rdQLenPdf::30                      0                       # What read queue length does an incoming req see
system.mem_ctrls.rdQLenPdf::31                      0                       # What read queue length does an incoming req see
system.mem_ctrls.wrQLenPdf::0                       1                       # What write queue length does an incoming req see
system.mem_ctrls.wrQLenPdf::1                       1                       # What write queue length does an incoming req see
system.mem_ctrls.wrQLenPdf::2                       1                       # What write queue length does an incoming req see
system.mem_ctrls.wrQLenPdf::3                       1                       # What write queue length does an incoming req see
system.mem_ctrls.wrQLenPdf::4                       1                       # What write queue length does an incoming req see
system.mem_ctrls.wrQLenPdf::5                       1                       # What write queue length does an incoming req see
system.mem_ctrls.wrQLenPdf::6                       1                       # What write queue length does an incoming req see
system.mem_ctrls.wrQLenPdf::7                       1                       # What write queue length does an incoming req see
system.mem_ctrls.wrQLenPdf::8                       1                       # What write queue length does an incoming req see
system.mem_ctrls.wrQLenPdf::9                       1                       # What write queue length does an incoming req see
system.mem_ctrls.wrQLenPdf::10                      1                       # What write queue length does an incoming req see
system.mem_ctrls.wrQLenPdf::11                      1                       # What write queue length does an incoming req see
system.mem_ctrls.wrQLenPdf::12                      1                       # What write queue length does an incoming req see
system.mem_ctrls.wrQLenPdf::13                      1                       # What write queue length does an incoming req see
system.mem_ctrls.wrQLenPdf::14                      1                       # What write queue length does an incoming req see
system.mem_ctrls.wrQLenPdf::15                      1                       # What write queue length does an incoming req see
system.mem_ctrls.wrQLenPdf::16                      1                       # What write queue length does an incoming req see
system.mem_ctrls.wrQLenPdf::17                      3                       # What write queue length does an incoming req see
system.mem_ctrls.wrQLenPdf::18                      3                       # What write queue length does an incoming req see
system.mem_ctrls.wrQLenPdf::19                      3                       # What write queue length does an incoming req see
system.mem_ctrls.wrQLenPdf::20                      3                       # What write queue length does an incoming req see
system.mem_ctrls.wrQLenPdf::21                      3                       # What write queue length does an incoming req see
system.mem_ctrls.wrQLenPdf::22                      3                       # What write queue length does an incoming req see
system.mem_ctrls.wrQLenPdf::23                      3                       # What write queue length does an incoming req see
system.mem_ctrls.wrQLenPdf::24                      3                       # What write queue length does an incoming req see
system.mem_ctrls.wrQLenPdf::25                      3                       # What write queue length does an incoming req see
system.mem_ctrls.wrQLenPdf::26                      3                       # What write queue length does an incoming req see
system.mem_ctrls.wrQLenPdf::27                      3                       # What write queue length does an incoming req see
system.mem_ctrls.wrQLenPdf::28                      3                       # What write queue length does an incoming req see
system.mem_ctrls.wrQLenPdf::29                      3                       # What write queue length does an incoming req see
system.mem_ctrls.wrQLenPdf::30                      3                       # What write queue length does an incoming req see
system.mem_ctrls.wrQLenPdf::31                      3                       # What write queue length does an incoming req see
system.mem_ctrls.wrQLenPdf::32                      2                       # What write queue length does an incoming req see
system.mem_ctrls.wrQLenPdf::33                      0                       # What write queue length does an incoming req see
system.mem_ctrls.wrQLenPdf::34                      0                       # What write queue length does an incoming req see
system.mem_ctrls.wrQLenPdf::35                      0                       # What write queue length does an incoming req see
system.mem_ctrls.wrQLenPdf::36                      0                       # What write queue length does an incoming req see
system.mem_ctrls.wrQLenPdf::37                      0                       # What write queue length does an incoming req see
system.mem_ctrls.wrQLenPdf::38                      0                       # What write queue length does an incoming req see
system.mem_ctrls.wrQLenPdf::39                      0                       # What write queue length does an incoming req see
system.mem_ctrls.wrQLenPdf::40                      0                       # What write queue length does an incoming req see
system.mem_ctrls.wrQLenPdf::41                      0                       # What write queue length does an incoming req see
system.mem_ctrls.wrQLenPdf::42                      0                       # What write queue length does an incoming req see
system.mem_ctrls.wrQLenPdf::43                      0                       # What write queue length does an incoming req see
system.mem_ctrls.wrQLenPdf::44                      0                       # What write queue length does an incoming req see
system.mem_ctrls.wrQLenPdf::45                      0                       # What write queue length does an incoming req see
system.mem_ctrls.wrQLenPdf::46                      0                       # What write queue length does an incoming req see
system.mem_ctrls.wrQLenPdf::47                      0                       # What write queue length does an incoming req see
system.mem_ctrls.wrQLenPdf::48                      0                       # What write queue length does an incoming req see
system.mem_ctrls.wrQLenPdf::49                      0                       # What write queue length does an incoming req see
system.mem_ctrls.wrQLenPdf::50                      0                       # What write queue length does an incoming req see
system.mem_ctrls.wrQLenPdf::51                      0                       # What write queue length does an incoming req see
system.mem_ctrls.wrQLenPdf::52                      0                       # What write queue length does an incoming req see
system.mem_ctrls.wrQLenPdf::53                      0                       # What write queue length does an incoming req see
system.mem_ctrls.wrQLenPdf::54                      0                       # What write queue length does an incoming req see
system.mem_ctrls.wrQLenPdf::55                      0                       # What write queue length does an incoming req see
system.mem_ctrls.wrQLenPdf::56                      0                       # What write queue length does an incoming req see
system.mem_ctrls.wrQLenPdf::57                      0                       # What write queue length does an incoming req see
system.mem_ctrls.wrQLenPdf::58                      0                       # What write queue length does an incoming req see
system.mem_ctrls.wrQLenPdf::59                      0                       # What write queue length does an incoming req see
system.mem_ctrls.wrQLenPdf::60                      0                       # What write queue length does an incoming req see
system.mem_ctrls.wrQLenPdf::61                      0                       # What write queue length does an incoming req see
system.mem_ctrls.wrQLenPdf::62                      0                       # What write queue length does an incoming req see
system.mem_ctrls.wrQLenPdf::63                      0                       # What write queue length does an incoming req see
system.mem_ctrls.bytesPerActivate::samples           99                       # Bytes accessed per row activation
system.mem_ctrls.bytesPerActivate::mean    334.868687                       # Bytes accessed per row activation
system.mem_ctrls.bytesPerActivate::gmean   221.602794                       # Bytes accessed per row activation
system.mem_ctrls.bytesPerActivate::stdev   314.842126                       # Bytes accessed per row activation
system.mem_ctrls.bytesPerActivate::0-127           22     22.22%     22.22% # Bytes accessed per row activation
system.mem_ctrls.bytesPerActivate::128-255           28     28.28%     50.51% # Bytes accessed per row activation
system.mem_ctrls.bytesPerActivate::256-383           22     22.22%     72.73% # Bytes accessed per row activation
system.mem_ctrls.bytesPerActivate::384-511            7      7.07%     79.80% # Bytes accessed per row activation
system.mem_ctrls.bytesPerActivate::512-639            2      2.02%     81.82% # Bytes accessed per row activation
system.mem_ctrls.bytesPerActivate::640-767            2      2.02%     83.84% # Bytes accessed per row activation
system.mem_ctrls.bytesPerActivate::768-895            2      2.02%     85.86% # Bytes accessed per row activation
system.mem_ctrls.bytesPerActivate::896-1023            3      3.03%     88.89% # Bytes accessed per row activation
system.mem_ctrls.bytesPerActivate::1024-1151           11     11.11%    100.00% # Bytes accessed per row activation
system.mem_ctrls.bytesPerActivate::total           99                       # Bytes accessed per row activation
system.mem_ctrls.rdPerTurnAround::samples            2                       # Reads before turning the bus around for writes
system.mem_ctrls.rdPerTurnAround::mean     238.500000                       # Reads before turning the bus around for writes
system.mem_ctrls.rdPerTurnAround::gmean    146.116392                       # Reads before turning the bus around for writes
system.mem_ctrls.rdPerTurnAround::stdev    266.579257                       # Reads before turning the bus around for writes
system.mem_ctrls.rdPerTurnAround::48-63             1     50.00%     50.00% # Reads before turning the bus around for writes
system.mem_ctrls.rdPerTurnAround::416-431            1     50.00%    100.00% # Reads before turning the bus around for writes
system.mem_ctrls.rdPerTurnAround::total             2                       # Reads before turning the bus around for writes
system.mem_ctrls.wrPerTurnAround::samples            2                       # Writes before turning the bus around for reads
system.mem_ctrls.wrPerTurnAround::mean             16                       # Writes before turning the bus around for reads
system.mem_ctrls.wrPerTurnAround::gmean     16.000000                       # Writes before turning the bus around for reads
system.mem_ctrls.wrPerTurnAround::16                2    100.00%    100.00% # Writes before turning the bus around for reads
system.mem_ctrls.wrPerTurnAround::total             2                       # Writes before turning the bus around for reads
system.mem_ctrls.bytesReadDRAM                  35136                       # Total number of bytes read from DRAM
system.mem_ctrls.bytesReadWrQ                     576                       # Total number of bytes read from write queue
system.mem_ctrls.bytesWritten                    2048                       # Total number of bytes written to DRAM
system.mem_ctrls.bytesReadSys                   35712                       # Total read bytes from the system interface side
system.mem_ctrls.bytesWrittenSys                 4096                       # Total written bytes from the system interface side
system.mem_ctrls.avgRdBW                      1152.78                       # Average DRAM read bandwidth in MiByte/s
system.mem_ctrls.avgWrBW                        67.19                       # Average achieved write bandwidth in MiByte/s
system.mem_ctrls.avgRdBWSys                   1171.68                       # Average system read bandwidth in MiByte/s
system.mem_ctrls.avgWrBWSys                    134.39                       # Average system write bandwidth in MiByte/s
system.mem_ctrls.peakBW                      12800.00                       # Theoretical peak bandwidth in MiByte/s
system.mem_ctrls.busUtil                         9.53                       # Data bus utilization in percentage
system.mem_ctrls.busUtilRead                     9.01                       # Data bus utilization in percentage for reads
system.mem_ctrls.busUtilWrite                    0.52                       # Data bus utilization in percentage for writes
system.mem_ctrls.totGap                      30424061                       # Total gap between requests
system.mem_ctrls.avgGap                      48913.28                       # Average gap between requests
system.mem_ctrls.masterReadBytes::.cpu.inst        24960                       # Per-master bytes read from memory
system.mem_ctrls.masterReadBytes::.cpu.data        10176                       # Per-master bytes read from memory
system.mem_ctrls.masterWriteBytes::.writebacks         2048                       # Per-master bytes write to memory
system.mem_ctrls.masterReadRate::.cpu.inst 818916068.780288219452                       # Per-master bytes read from memory rate (Bytes/sec)
system.mem_ctrls.masterReadRate::.cpu.data 333865781.887348234653                       # Per-master bytes read from memory rate (Bytes/sec)
system.mem_ctrls.masterWriteRate::.writebacks 67193113.335818514228                       # Per-master bytes write to memory rate (Bytes/sec)
system.mem_ctrls.masterReadAccesses::.cpu.inst          398                       # Per-master read serviced memory accesses
system.mem_ctrls.masterReadAccesses::.cpu.data          160                       # Per-master read serviced memory accesses
system.mem_ctrls.masterWriteAccesses::.writebacks           64                       # Per-master write serviced memory accesses
system.mem_ctrls.masterReadTotalLat::.cpu.inst      9646441                       # Per-master read total memory access latency
system.mem_ctrls.masterReadTotalLat::.cpu.data      4058127                       # Per-master read total memory access latency
system.mem_ctrls.masterWriteTotalLat::.writebacks    160470881                       # Per-master write total memory access latency
system.mem_ctrls.masterReadAvgLat::.cpu.inst     24237.29                       # Per-master read average memory access latency
system.mem_ctrls.masterReadAvgLat::.cpu.data     25363.29                       # Per-master read average memory access latency
system.mem_ctrls.masterWriteAvgLat::.writebacks   2507357.52                       # Per-master write average memory access latency
system.mem_ctrls.pageHitRate                    76.84                       # Row buffer hit rate, read and write combined
system.mem_ctrls.rank1.actEnergy               335580                       # Energy for activate commands per rank (pJ)
system.mem_ctrls.rank1.preEnergy               159390                       # Energy for precharge commands per rank (pJ)
system.mem_ctrls.rank1.readEnergy             1485120                       # Energy for read commands per rank (pJ)
system.mem_ctrls.rank1.writeEnergy              52200                       # Energy for write commands per rank (pJ)
system.mem_ctrls.rank1.refreshEnergy     1843920.000000                       # Energy for refresh commands per rank (pJ)
system.mem_ctrls.rank1.actBackEnergy         13603050                       # Energy for active background per rank (pJ)
system.mem_ctrls.rank1.preBackEnergy           249120                       # Energy for precharge background per rank (pJ)
system.mem_ctrls.rank1.actPowerDownEnergy            0                       # Energy for active power-down per rank (pJ)
system.mem_ctrls.rank1.prePowerDownEnergy            0                       # Energy for precharge power-down per rank (pJ)
system.mem_ctrls.rank1.selfRefreshEnergy            0                       # Energy for self refresh per rank (pJ)
system.mem_ctrls.rank1.totalEnergy           17728380                       # Total energy per rank (pJ)
system.mem_ctrls.rank1.averagePower        581.652855                       # Core power per rank (mW)
system.mem_ctrls.rank1.totalIdleTime                0                       # Total Idle time Per DRAM Rank
system.mem_ctrls.rank1.memoryStateTime::IDLE       564159                       # Time in different power states
system.mem_ctrls.rank1.memoryStateTime::REF       780000                       # Time in different power states
system.mem_ctrls.rank1.memoryStateTime::SREF            0                       # Time in different power states
system.mem_ctrls.rank1.memoryStateTime::PRE_PDN            0                       # Time in different power states
system.mem_ctrls.rank1.memoryStateTime::ACT     29135155                       # Time in different power states
system.mem_ctrls.rank1.memoryStateTime::ACT_PDN            0                       # Time in different power states
system.mem_ctrls.rank0.actEnergy               449820                       # Energy for activate commands per rank (pJ)
system.mem_ctrls.rank0.preEnergy               216315                       # Energy for precharge commands per rank (pJ)
system.mem_ctrls.rank0.readEnergy             2434740                       # Energy for read commands per rank (pJ)
system.mem_ctrls.rank0.writeEnergy             114840                       # Energy for write commands per rank (pJ)
system.mem_ctrls.rank0.refreshEnergy     1843920.000000                       # Energy for refresh commands per rank (pJ)
system.mem_ctrls.rank0.actBackEnergy         13538640                       # Energy for active background per rank (pJ)
system.mem_ctrls.rank0.preBackEnergy           303360                       # Energy for precharge background per rank (pJ)
system.mem_ctrls.rank0.actPowerDownEnergy            0                       # Energy for active power-down per rank (pJ)
system.mem_ctrls.rank0.prePowerDownEnergy            0                       # Energy for precharge power-down per rank (pJ)
system.mem_ctrls.rank0.selfRefreshEnergy            0                       # Energy for self refresh per rank (pJ)
system.mem_ctrls.rank0.totalEnergy           18901635                       # Total energy per rank (pJ)
system.mem_ctrls.rank0.averagePower        620.146339                       # Core power per rank (mW)
system.mem_ctrls.rank0.totalIdleTime                0                       # Total Idle time Per DRAM Rank
system.mem_ctrls.rank0.memoryStateTime::IDLE       678523                       # Time in different power states
system.mem_ctrls.rank0.memoryStateTime::REF       780000                       # Time in different power states
system.mem_ctrls.rank0.memoryStateTime::SREF            0                       # Time in different power states
system.mem_ctrls.rank0.memoryStateTime::PRE_PDN            0                       # Time in different power states
system.mem_ctrls.rank0.memoryStateTime::ACT     29020791                       # Time in different power states
system.mem_ctrls.rank0.memoryStateTime::ACT_PDN            0                       # Time in different power states
system.cpu_clk_domain.clock                       313                       # Clock period in ticks
system.cpu.pwrStateResidencyTicks::ON        30479314                       # Cumulative time (in ticks) in various power states
system.cpu.icache.pwrStateResidencyTicks::UNDEFINED     30479314                       # Cumulative time (in ticks) in various power states
system.cpu.icache.demand_hits::.cpu.inst         3044                       # number of demand (read+write) hits
system.cpu.icache.demand_hits::total             3044                       # number of demand (read+write) hits
system.cpu.icache.overall_hits::.cpu.inst         3044                       # number of overall hits
system.cpu.icache.overall_hits::total            3044                       # number of overall hits
system.cpu.icache.demand_misses::.cpu.inst          398                       # number of demand (read+write) misses
system.cpu.icache.demand_misses::total            398                       # number of demand (read+write) misses
system.cpu.icache.overall_misses::.cpu.inst          398                       # number of overall misses
system.cpu.icache.overall_misses::total           398                       # number of overall misses
system.cpu.icache.demand_miss_latency::.cpu.inst     22513151                       # number of demand (read+write) miss cycles
system.cpu.icache.demand_miss_latency::total     22513151                       # number of demand (read+write) miss cycles
system.cpu.icache.overall_miss_latency::.cpu.inst     22513151                       # number of overall miss cycles
system.cpu.icache.overall_miss_latency::total     22513151                       # number of overall miss cycles
system.cpu.icache.demand_accesses::.cpu.inst         3442                       # number of demand (read+write) accesses
system.cpu.icache.demand_accesses::total         3442                       # number of demand (read+write) accesses
system.cpu.icache.overall_accesses::.cpu.inst         3442                       # number of overall (read+write) accesses
system.cpu.icache.overall_accesses::total         3442                       # number of overall (read+write) accesses
system.cpu.icache.demand_miss_rate::.cpu.inst     0.115630                       # miss rate for demand accesses
system.cpu.icache.demand_miss_rate::total     0.115630                       # miss rate for demand accesses
system.cpu.icache.overall_miss_rate::.cpu.inst     0.115630                       # miss rate for overall accesses
system.cpu.icache.overall_miss_rate::total     0.115630                       # miss rate for overall accesses
system.cpu.icache.demand_avg_miss_latency::.cpu.inst 56565.706030                       # average overall miss latency
system.cpu.icache.demand_avg_miss_latency::total 56565.706030                       # average overall miss latency
system.cpu.icache.overall_avg_miss_latency::.cpu.inst 56565.706030                       # average overall miss latency
system.cpu.icache.overall_avg_miss_latency::total 56565.706030                       # average overall miss latency
system.cpu.icache.blocked_cycles::no_mshrs            0                       # number of cycles access was blocked
system.cpu.icache.blocked_cycles::no_targets            0                       # number of cycles access was blocked
system.cpu.icache.blocked::no_mshrs                 0                       # number of cycles access was blocked
system.cpu.icache.blocked::no_targets               0                       # number of cycles access was blocked
system.cpu.icache.avg_blocked_cycles::no_mshrs          nan                       # average number of cycles each access was blocked
system.cpu.icache.avg_blocked_cycles::no_targets          nan                       # average number of cycles each access was blocked
system.cpu.icache.writebacks::.writebacks           66                       # number of writebacks
system.cpu.icache.writebacks::total                66                       # number of writebacks
system.cpu.icache.demand_mshr_misses::.cpu.inst          398                       # number of demand (read+write) MSHR misses
system.cpu.icache.demand_mshr_misses::total          398                       # number of demand (read+write) MSHR misses
system.cpu.icache.overall_mshr_misses::.cpu.inst          398                       # number of overall MSHR misses
system.cpu.icache.overall_mshr_misses::total          398                       # number of overall MSHR misses
system.cpu.icache.demand_mshr_miss_latency::.cpu.inst     22206523                       # number of demand (read+write) MSHR miss cycles
system.cpu.icache.demand_mshr_miss_latency::total     22206523                       # number of demand (read+write) MSHR miss cycles
system.cpu.icache.overall_mshr_miss_latency::.cpu.inst     22206523                       # number of overall MSHR miss cycles
system.cpu.icache.overall_mshr_miss_latency::total     22206523                       # number of overall MSHR miss cycles
system.cpu.icache.demand_mshr_miss_rate::.cpu.inst     0.115630                       # mshr miss rate for demand accesses
system.cpu.icache.demand_mshr_miss_rate::total     0.115630                       # mshr miss rate for demand accesses
system.cpu.icache.overall_mshr_miss_rate::.cpu.inst     0.115630                       # mshr miss rate for overall accesses
system.cpu.icache.overall_mshr_miss_rate::total     0.115630                       # mshr miss rate for overall accesses
system.cpu.icache.demand_avg_mshr_miss_latency::.cpu.inst 55795.283920                       # average overall mshr miss latency
system.cpu.icache.demand_avg_mshr_miss_latency::total 55795.283920                       # average overall mshr miss latency
system.cpu.icache.overall_avg_mshr_miss_latency::.cpu.inst 55795.283920                       # average overall mshr miss latency
system.cpu.icache.overall_avg_mshr_miss_latency::total 55795.283920                       # average overall mshr miss latency
system.cpu.icache.replacements                     66                       # number of replacements
system.cpu.icache.ReadReq_hits::.cpu.inst         3044                       # number of ReadReq hits
system.cpu.icache.ReadReq_hits::total            3044                       # number of ReadReq hits
system.cpu.icache.ReadReq_misses::.cpu.inst          398                       # number of ReadReq misses
system.cpu.icache.ReadReq_misses::total           398                       # number of ReadReq misses
system.cpu.icache.ReadReq_miss_latency::.cpu.inst     22513151                       # number of ReadReq miss cycles
system.cpu.icache.ReadReq_miss_latency::total     22513151                       # number of ReadReq miss cycles
system.cpu.icache.ReadReq_accesses::.cpu.inst         3442                       # number of ReadReq accesses(hits+misses)
system.cpu.icache.ReadReq_accesses::total         3442                       # number of ReadReq accesses(hits+misses)
system.cpu.icache.ReadReq_miss_rate::.cpu.inst     0.115630                       # miss rate for ReadReq accesses
system.cpu.icache.ReadReq_miss_rate::total     0.115630                       # miss rate for ReadReq accesses
system.cpu.icache.ReadReq_avg_miss_latency::.cpu.inst 56565.706030                       # average ReadReq miss latency
system.cpu.icache.ReadReq_avg_miss_latency::total 56565.706030                       # average ReadReq miss latency
system.cpu.icache.ReadReq_mshr_misses::.cpu.inst          398                       # number of ReadReq MSHR misses
system.cpu.icache.ReadReq_mshr_misses::total          398                       # number of ReadReq MSHR misses
system.cpu.icache.ReadReq_mshr_miss_latency::.cpu.inst     22206523                       # number of ReadReq MSHR miss cycles
system.cpu.icache.ReadReq_mshr_miss_latency::total     22206523                       # number of ReadReq MSHR miss cycles
system.cpu.icache.ReadReq_mshr_miss_rate::.cpu.inst     0.115630                       # mshr miss rate for ReadReq accesses
system.cpu.icache.ReadReq_mshr_miss_rate::total     0.115630                       # mshr miss rate for ReadReq accesses
system.cpu.icache.ReadReq_avg_mshr_miss_latency::.cpu.inst 55795.283920                       # average ReadReq mshr miss latency
system.cpu.icache.ReadReq_avg_mshr_miss_latency::total 55795.283920                       # average ReadReq mshr miss latency
system.cpu.icache.tags.pwrStateResidencyTicks::UNDEFINED     30479314                       # Cumulative time (in ticks) in various power states
system.cpu.icache.tags.tagsinuse           180.435176                       # Cycle average of tags in use
system.cpu.icache.tags.total_refs                3442                       # Total number of references to valid blocks.
system.cpu.icache.tags.sampled_refs               398                       # Sample count of references to valid blocks.
system.cpu.icache.tags.avg_refs              8.648241                       # Average number of references to valid blocks.
system.cpu.icache.tags.warmup_cycle             77000                       # Cycle when the warmup percentage was hit.
system.cpu.icache.tags.occ_blocks::.cpu.inst   180.435176                       # Average occupied blocks per requestor
system.cpu.icache.tags.occ_percent::.cpu.inst     0.352412                       # Average percentage of cache occupancy
system.cpu.icache.tags.occ_percent::total     0.352412                       # Average percentage of cache occupancy
system.cpu.icache.tags.occ_task_id_blocks::1024          332                       # Occupied blocks per task id
system.cpu.icache.tags.age_task_id_blocks_1024::0          138                       # Occupied blocks per task id
system.cpu.icache.tags.age_task_id_blocks_1024::1          194                       # Occupied blocks per task id
system.cpu.icache.tags.occ_task_id_percent::1024     0.648438                       # Percentage of cache occupancy per task id
system.cpu.icache.tags.tag_accesses              7282                       # Number of tag accesses
system.cpu.icache.tags.data_accesses             7282                       # Number of data accesses
system.cpu.dtb.walker.pwrStateResidencyTicks::UNDEFINED     30479314                       # Cumulative time (in ticks) in various power states
system.cpu.dtb.stage2_mmu.stage2_tlb.walker.pwrStateResidencyTicks::UNDEFINED     30479314                       # Cumulative time (in ticks) in various power states
system.cpu.dcache.pwrStateResidencyTicks::UNDEFINED     30479314                       # Cumulative time (in ticks) in various power states
system.cpu.dcache.demand_hits::.cpu.data         2851                       # number of demand (read+write) hits
system.cpu.dcache.demand_hits::total             2851                       # number of demand (read+write) hits
system.cpu.dcache.overall_hits::.cpu.data         2868                       # number of overall hits
system.cpu.dcache.overall_hits::total            2868                       # number of overall hits
system.cpu.dcache.demand_misses::.cpu.data          203                       # number of demand (read+write) misses
system.cpu.dcache.demand_misses::total            203                       # number of demand (read+write) misses
system.cpu.dcache.overall_misses::.cpu.data          214                       # number of overall misses
system.cpu.dcache.overall_misses::total           214                       # number of overall misses
system.cpu.dcache.demand_miss_latency::.cpu.data     11639455                       # number of demand (read+write) miss cycles
system.cpu.dcache.demand_miss_latency::total     11639455                       # number of demand (read+write) miss cycles
system.cpu.dcache.overall_miss_latency::.cpu.data     11639455                       # number of overall miss cycles
system.cpu.dcache.overall_miss_latency::total     11639455                       # number of overall miss cycles
system.cpu.dcache.demand_accesses::.cpu.data         3054                       # number of demand (read+write) accesses
system.cpu.dcache.demand_accesses::total         3054                       # number of demand (read+write) accesses
system.cpu.dcache.overall_accesses::.cpu.data         3082                       # number of overall (read+write) accesses
system.cpu.dcache.overall_accesses::total         3082                       # number of overall (read+write) accesses
system.cpu.dcache.demand_miss_rate::.cpu.data     0.066470                       # miss rate for demand accesses
system.cpu.dcache.demand_miss_rate::total     0.066470                       # miss rate for demand accesses
system.cpu.dcache.overall_miss_rate::.cpu.data     0.069435                       # miss rate for overall accesses
system.cpu.dcache.overall_miss_rate::total     0.069435                       # miss rate for overall accesses
system.cpu.dcache.demand_avg_miss_latency::.cpu.data 57337.216749                       # average overall miss latency
system.cpu.dcache.demand_avg_miss_latency::total 57337.216749                       # average overall miss latency
system.cpu.dcache.overall_avg_miss_latency::.cpu.data 54389.976636                       # average overall miss latency
system.cpu.dcache.overall_avg_miss_latency::total 54389.976636                       # average overall miss latency
system.cpu.dcache.blocked_cycles::no_mshrs            0                       # number of cycles access was blocked
system.cpu.dcache.blocked_cycles::no_targets            0                       # number of cycles access was blocked
system.cpu.dcache.blocked::no_mshrs                 0                       # number of cycles access was blocked
system.cpu.dcache.blocked::no_targets               0                       # number of cycles access was blocked
system.cpu.dcache.avg_blocked_cycles::no_mshrs          nan                       # average number of cycles each access was blocked
system.cpu.dcache.avg_blocked_cycles::no_targets          nan                       # average number of cycles each access was blocked
system.cpu.dcache.demand_mshr_hits::.cpu.data           53                       # number of demand (read+write) MSHR hits
system.cpu.dcache.demand_mshr_hits::total           53                       # number of demand (read+write) MSHR hits
system.cpu.dcache.overall_mshr_hits::.cpu.data           53                       # number of overall MSHR hits
system.cpu.dcache.overall_mshr_hits::total           53                       # number of overall MSHR hits
system.cpu.dcache.demand_mshr_misses::.cpu.data          150                       # number of demand (read+write) MSHR misses
system.cpu.dcache.demand_mshr_misses::total          150                       # number of demand (read+write) MSHR misses
system.cpu.dcache.overall_mshr_misses::.cpu.data          158                       # number of overall MSHR misses
system.cpu.dcache.overall_mshr_misses::total          158                       # number of overall MSHR misses
system.cpu.dcache.demand_mshr_miss_latency::.cpu.data      8550304                       # number of demand (read+write) MSHR miss cycles
system.cpu.dcache.demand_mshr_miss_latency::total      8550304                       # number of demand (read+write) MSHR miss cycles
system.cpu.dcache.overall_mshr_miss_latency::.cpu.data      9015592                       # number of overall MSHR miss cycles
system.cpu.dcache.overall_mshr_miss_latency::total      9015592                       # number of overall MSHR miss cycles
system.cpu.dcache.demand_mshr_miss_rate::.cpu.data     0.049116                       # mshr miss rate for demand accesses
system.cpu.dcache.demand_mshr_miss_rate::total     0.049116                       # mshr miss rate for demand accesses
system.cpu.dcache.overall_mshr_miss_rate::.cpu.data     0.051265                       # mshr miss rate for overall accesses
system.cpu.dcache.overall_mshr_miss_rate::total     0.051265                       # mshr miss rate for overall accesses
system.cpu.dcache.demand_avg_mshr_miss_latency::.cpu.data 57002.026667                       # average overall mshr miss latency
system.cpu.dcache.demand_avg_mshr_miss_latency::total 57002.026667                       # average overall mshr miss latency
system.cpu.dcache.overall_avg_mshr_miss_latency::.cpu.data 57060.708861                       # average overall mshr miss latency
system.cpu.dcache.overall_avg_mshr_miss_latency::total 57060.708861                       # average overall mshr miss latency
system.cpu.dcache.replacements                      0                       # number of replacements
system.cpu.dcache.ReadReq_hits::.cpu.data         1485                       # number of ReadReq hits
system.cpu.dcache.ReadReq_hits::total            1485                       # number of ReadReq hits
system.cpu.dcache.ReadReq_misses::.cpu.data           88                       # number of ReadReq misses
system.cpu.dcache.ReadReq_misses::total            88                       # number of ReadReq misses
system.cpu.dcache.ReadReq_miss_latency::.cpu.data      5108510                       # number of ReadReq miss cycles
system.cpu.dcache.ReadReq_miss_latency::total      5108510                       # number of ReadReq miss cycles
system.cpu.dcache.ReadReq_accesses::.cpu.data         1573                       # number of ReadReq accesses(hits+misses)
system.cpu.dcache.ReadReq_accesses::total         1573                       # number of ReadReq accesses(hits+misses)
system.cpu.dcache.ReadReq_miss_rate::.cpu.data     0.055944                       # miss rate for ReadReq accesses
system.cpu.dcache.ReadReq_miss_rate::total     0.055944                       # miss rate for ReadReq accesses
system.cpu.dcache.ReadReq_avg_miss_latency::.cpu.data 58051.250000                       # average ReadReq miss latency
system.cpu.dcache.ReadReq_avg_miss_latency::total 58051.250000                       # average ReadReq miss latency
system.cpu.dcache.ReadReq_mshr_hits::.cpu.data            6                       # number of ReadReq MSHR hits
system.cpu.dcache.ReadReq_mshr_hits::total            6                       # number of ReadReq MSHR hits
system.cpu.dcache.ReadReq_mshr_misses::.cpu.data           82                       # number of ReadReq MSHR misses
system.cpu.dcache.ReadReq_mshr_misses::total           82                       # number of ReadReq MSHR misses
system.cpu.dcache.ReadReq_mshr_miss_latency::.cpu.data      4706086                       # number of ReadReq MSHR miss cycles
system.cpu.dcache.ReadReq_mshr_miss_latency::total      4706086                       # number of ReadReq MSHR miss cycles
system.cpu.dcache.ReadReq_mshr_miss_rate::.cpu.data     0.052130                       # mshr miss rate for ReadReq accesses
system.cpu.dcache.ReadReq_mshr_miss_rate::total     0.052130                       # mshr miss rate for ReadReq accesses
system.cpu.dcache.ReadReq_avg_mshr_miss_latency::.cpu.data 57391.292683                       # average ReadReq mshr miss latency
system.cpu.dcache.ReadReq_avg_mshr_miss_latency::total 57391.292683                       # average ReadReq mshr miss latency
system.cpu.dcache.WriteReq_hits::.cpu.data         1366                       # number of WriteReq hits
system.cpu.dcache.WriteReq_hits::total           1366                       # number of WriteReq hits
system.cpu.dcache.WriteReq_misses::.cpu.data          115                       # number of WriteReq misses
system.cpu.dcache.WriteReq_misses::total          115                       # number of WriteReq misses
system.cpu.dcache.WriteReq_miss_latency::.cpu.data      6530945                       # number of WriteReq miss cycles
system.cpu.dcache.WriteReq_miss_latency::total      6530945                       # number of WriteReq miss cycles
system.cpu.dcache.WriteReq_accesses::.cpu.data         1481                       # number of WriteReq accesses(hits+misses)
system.cpu.dcache.WriteReq_accesses::total         1481                       # number of WriteReq accesses(hits+misses)
system.cpu.dcache.WriteReq_miss_rate::.cpu.data     0.077650                       # miss rate for WriteReq accesses
system.cpu.dcache.WriteReq_miss_rate::total     0.077650                       # miss rate for WriteReq accesses
system.cpu.dcache.WriteReq_avg_miss_latency::.cpu.data 56790.826087                       # average WriteReq miss latency
system.cpu.dcache.WriteReq_avg_miss_latency::total 56790.826087                       # average WriteReq miss latency
system.cpu.dcache.WriteReq_mshr_hits::.cpu.data           47                       # number of WriteReq MSHR hits
system.cpu.dcache.WriteReq_mshr_hits::total           47                       # number of WriteReq MSHR hits
system.cpu.dcache.WriteReq_mshr_misses::.cpu.data           68                       # number of WriteReq MSHR misses
system.cpu.dcache.WriteReq_mshr_misses::total           68                       # number of WriteReq MSHR misses
system.cpu.dcache.WriteReq_mshr_miss_latency::.cpu.data      3844218                       # number of WriteReq MSHR miss cycles
system.cpu.dcache.WriteReq_mshr_miss_latency::total      3844218                       # number of WriteReq MSHR miss cycles
system.cpu.dcache.WriteReq_mshr_miss_rate::.cpu.data     0.045915                       # mshr miss rate for WriteReq accesses
system.cpu.dcache.WriteReq_mshr_miss_rate::total     0.045915                       # mshr miss rate for WriteReq accesses
system.cpu.dcache.WriteReq_avg_mshr_miss_latency::.cpu.data 56532.617647                       # average WriteReq mshr miss latency
system.cpu.dcache.WriteReq_avg_mshr_miss_latency::total 56532.617647                       # average WriteReq mshr miss latency
system.cpu.dcache.SoftPFReq_hits::.cpu.data           17                       # number of SoftPFReq hits
system.cpu.dcache.SoftPFReq_hits::total            17                       # number of SoftPFReq hits
system.cpu.dcache.SoftPFReq_misses::.cpu.data           11                       # number of SoftPFReq misses
system.cpu.dcache.SoftPFReq_misses::total           11                       # number of SoftPFReq misses
system.cpu.dcache.SoftPFReq_accesses::.cpu.data           28                       # number of SoftPFReq accesses(hits+misses)
system.cpu.dcache.SoftPFReq_accesses::total           28                       # number of SoftPFReq accesses(hits+misses)
system.cpu.dcache.SoftPFReq_miss_rate::.cpu.data     0.392857                       # miss rate for SoftPFReq accesses
system.cpu.dcache.SoftPFReq_miss_rate::total     0.392857                       # miss rate for SoftPFReq accesses
system.cpu.dcache.SoftPFReq_mshr_misses::.cpu.data            8                       # number of SoftPFReq MSHR misses
system.cpu.dcache.SoftPFReq_mshr_misses::total            8                       # number of SoftPFReq MSHR misses
system.cpu.dcache.SoftPFReq_mshr_miss_latency::.cpu.data       465288                       # number of SoftPFReq MSHR miss cycles
system.cpu.dcache.SoftPFReq_mshr_miss_latency::total       465288                       # number of SoftPFReq MSHR miss cycles
system.cpu.dcache.SoftPFReq_mshr_miss_rate::.cpu.data     0.285714                       # mshr miss rate for SoftPFReq accesses
system.cpu.dcache.SoftPFReq_mshr_miss_rate::total     0.285714                       # mshr miss rate for SoftPFReq accesses
system.cpu.dcache.SoftPFReq_avg_mshr_miss_latency::.cpu.data        58161                       # average SoftPFReq mshr miss latency
system.cpu.dcache.SoftPFReq_avg_mshr_miss_latency::total        58161                       # average SoftPFReq mshr miss latency
system.cpu.dcache.LoadLockedReq_hits::.cpu.data           16                       # number of LoadLockedReq hits
system.cpu.dcache.LoadLockedReq_hits::total           16                       # number of LoadLockedReq hits
system.cpu.dcache.LoadLockedReq_misses::.cpu.data            2                       # number of LoadLockedReq misses
system.cpu.dcache.LoadLockedReq_misses::total            2                       # number of LoadLockedReq misses
system.cpu.dcache.LoadLockedReq_miss_latency::.cpu.data       115184                       # number of LoadLockedReq miss cycles
system.cpu.dcache.LoadLockedReq_miss_latency::total       115184                       # number of LoadLockedReq miss cycles
system.cpu.dcache.LoadLockedReq_accesses::.cpu.data           18                       # number of LoadLockedReq accesses(hits+misses)
system.cpu.dcache.LoadLockedReq_accesses::total           18                       # number of LoadLockedReq accesses(hits+misses)
system.cpu.dcache.LoadLockedReq_miss_rate::.cpu.data     0.111111                       # miss rate for LoadLockedReq accesses
system.cpu.dcache.LoadLockedReq_miss_rate::total     0.111111                       # miss rate for LoadLockedReq accesses
system.cpu.dcache.LoadLockedReq_avg_miss_latency::.cpu.data        57592                       # average LoadLockedReq miss latency
system.cpu.dcache.LoadLockedReq_avg_miss_latency::total        57592                       # average LoadLockedReq miss latency
system.cpu.dcache.LoadLockedReq_mshr_misses::.cpu.data            2                       # number of LoadLockedReq MSHR misses
system.cpu.dcache.LoadLockedReq_mshr_misses::total            2                       # number of LoadLockedReq MSHR misses
system.cpu.dcache.LoadLockedReq_mshr_miss_latency::.cpu.data       113443                       # number of LoadLockedReq MSHR miss cycles
system.cpu.dcache.LoadLockedReq_mshr_miss_latency::total       113443                       # number of LoadLockedReq MSHR miss cycles
system.cpu.dcache.LoadLockedReq_mshr_miss_rate::.cpu.data     0.111111                       # mshr miss rate for LoadLockedReq accesses
system.cpu.dcache.LoadLockedReq_mshr_miss_rate::total     0.111111                       # mshr miss rate for LoadLockedReq accesses
system.cpu.dcache.LoadLockedReq_avg_mshr_miss_latency::.cpu.data 56721.500000                       # average LoadLockedReq mshr miss latency
system.cpu.dcache.LoadLockedReq_avg_mshr_miss_latency::total 56721.500000                       # average LoadLockedReq mshr miss latency
system.cpu.dcache.StoreCondReq_hits::.cpu.data           18                       # number of StoreCondReq hits
system.cpu.dcache.StoreCondReq_hits::total           18                       # number of StoreCondReq hits
system.cpu.dcache.StoreCondReq_accesses::.cpu.data           18                       # number of StoreCondReq accesses(hits+misses)
system.cpu.dcache.StoreCondReq_accesses::total           18                       # number of StoreCondReq accesses(hits+misses)
system.cpu.dcache.tags.pwrStateResidencyTicks::UNDEFINED     30479314                       # Cumulative time (in ticks) in various power states
system.cpu.dcache.tags.tagsinuse            94.061379                       # Cycle average of tags in use
system.cpu.dcache.tags.total_refs                3062                       # Total number of references to valid blocks.
system.cpu.dcache.tags.sampled_refs               160                       # Sample count of references to valid blocks.
system.cpu.dcache.tags.avg_refs             19.137500                       # Average number of references to valid blocks.
system.cpu.dcache.tags.warmup_cycle            144000                       # Cycle when the warmup percentage was hit.
system.cpu.dcache.tags.occ_blocks::.cpu.data    94.061379                       # Average occupied blocks per requestor
system.cpu.dcache.tags.occ_percent::.cpu.data     0.091857                       # Average percentage of cache occupancy
system.cpu.dcache.tags.occ_percent::total     0.091857                       # Average percentage of cache occupancy
system.cpu.dcache.tags.occ_task_id_blocks::1024          160                       # Occupied blocks per task id
system.cpu.dcache.tags.age_task_id_blocks_1024::0           36                       # Occupied blocks per task id
system.cpu.dcache.tags.age_task_id_blocks_1024::1          124                       # Occupied blocks per task id
system.cpu.dcache.tags.occ_task_id_percent::1024     0.156250                       # Percentage of cache occupancy per task id
system.cpu.dcache.tags.tag_accesses              6396                       # Number of tag accesses
system.cpu.dcache.tags.data_accesses             6396                       # Number of data accesses
system.cpu.itb.walker.pwrStateResidencyTicks::UNDEFINED     30479314                       # Cumulative time (in ticks) in various power states
system.cpu.itb.stage2_mmu.stage2_tlb.walker.pwrStateResidencyTicks::UNDEFINED     30479314                       # Cumulative time (in ticks) in various power states

---------- End Simulation Statistics   ----------
